Info: SIMULATION PARAMETERS:
Info: TIMESTEP               2
Info: NUMBER OF STEPS        0
Info: STEPS PER CYCLE        20
Info: FIRST LDB TIMESTEP     100
Info: LAST LDB TIMESTEP     -1
Info: HOM BACKGROUND SCALING 1
Info: MIN ATOMS PER PATCH    40
Info: EMPTY PATCH LOAD       40 ATOMS
Info: INITIAL TEMPERATURE    303.15
Info: CENTER OF MASS MOVING INITIALLY? NO
Info: DIELECTRIC             1
Info: EXCLUDE                SCALED ONE-FOUR
Info: 1-4 ELECTROSTATICS SCALED BY 1
Info: MODIFIED 1-4 VDW PARAMETERS WILL BE USED
Info: DCD FILENAME           min.dcd
Info: DCD FREQUENCY          5000
Info: DCD FIRST STEP         5000
Info: DCD FILE WILL CONTAIN UNIT CELL DATA
Info: XST FILENAME           min.xst
Info: XST FREQUENCY          5000
Info: NO VELOCITY DCD OUTPUT
Info: NO FORCE DCD OUTPUT
Info: OUTPUT FILENAME        min
Info: BINARY OUTPUT FILES WILL BE USED
Info: RESTART FILENAME       min.restart
Info: RESTART FREQUENCY      500
Info: BINARY RESTART FILES WILL BE USED
Info: SWITCHING ACTIVE
Info: VDW FORCE SWITCHING ACTIVE
Info: SWITCHING ON           10
Info: SWITCHING OFF          12
Info: PAIRLIST DISTANCE      16
Info: PAIRLIST SHRINK RATE   0.01
Info: PAIRLIST GROW RATE     0.01
Info: PAIRLIST TRIGGER       0.3
Info: PAIRLISTS PER CYCLE    2
Info: PAIRLISTS ENABLED
Info: MARGIN                 0
Info: HYDROGEN GROUP CUTOFF  2.5
Info: PATCH DIMENSION        18.5
Info: OUTPUT ENERGY PRECISION 4
Info: OUPUT ENERGY PRECISION 4
Info: CROSSTERM ENERGY INCLUDED IN DIHEDRAL
Info: TIMING OUTPUT STEPS    1000
Info: LANGEVIN DYNAMICS ACTIVE
Info: LANGEVIN TEMPERATURE   303.15
Info: LANGEVIN USING BBK INTEGRATOR
Info: LANGEVIN DAMPING COEFFICIENT IS 1 INVERSE PS
Info: LANGEVIN DYNAMICS NOT APPLIED TO HYDROGENS
Info: VELOCITY REASSIGNMENT FREQ  500
Info: VELOCITY REASSIGNMENT TEMP  303.15
Info: USING VERLET I (r-RESPA) MTS SCHEME.
Info: C1 SPLITTING OF LONG RANGE ELECTROSTATICS
Info: PLACING ATOMS IN PATCHES BY HYDROGEN GROUPS
Info: RIGID BONDS TO HYDROGEN : ALL
Info:         ERROR TOLERANCE : 1e-08
Info:          MAX ITERATIONS : 100
Info: RIGID WATER USING SETTLE ALGORITHM
Info: RANDOM NUMBER SEED     1699478721
Info: USE HYDROGEN BONDS?    NO
Info: COORDINATE PDB         complex.pdb
Info: STRUCTURE FILE         complex.psf
Info: PARAMETER file: CHARMM format!
Info: PARAMETERS             ../../Sim_Toppar_Directory/par_all36m_prot.prm
Info: PARAMETERS             ../../Sim_Toppar_Directory/par_all36_na.prm
Info: PARAMETERS             ../../Sim_Toppar_Directory/par_all36_carb.prm
Info: PARAMETERS             ../../Sim_Toppar_Directory/par_all36_lipid.prm
Info: PARAMETERS             ../../Sim_Toppar_Directory/par_all36_cgenff.prm
Info: PARAMETERS             ../../Sim_Toppar_Directory/par_interface.prm
Info: PARAMETERS             ../../Sim_Toppar_Directory/toppar_all36_moreions.str
Info: PARAMETERS             ../../Sim_Toppar_Directory/toppar_all36_nano_lig.str
Info: PARAMETERS             ../../Sim_Toppar_Directory/toppar_all36_nano_lig_patch.str
Info: PARAMETERS             ../../Sim_Toppar_Directory/toppar_all36_synthetic_polymer.str
Info: PARAMETERS             ../../Sim_Toppar_Directory/toppar_all36_synthetic_polymer_patch.str
Info: PARAMETERS             ../../Sim_Toppar_Directory/toppar_all36_polymer_solvent.str
Info: PARAMETERS             ../../Sim_Toppar_Directory/toppar_water_ions.str
Info: PARAMETERS             ../../Sim_Toppar_Directory/toppar_dum_noble_gases.str
Info: PARAMETERS             ../../Sim_Toppar_Directory/toppar_ions_won.str
Info: PARAMETERS             ../../Sim_Toppar_Directory/cam.str
Info: PARAMETERS             ../../Sim_Toppar_Directory/toppar_all36_prot_arg0.str
Info: PARAMETERS             ../../Sim_Toppar_Directory/toppar_all36_prot_c36m_d_aminoacids.str
Info: PARAMETERS             ../../Sim_Toppar_Directory/toppar_all36_prot_fluoro_alkanes.str
Info: PARAMETERS             ../../Sim_Toppar_Directory/toppar_all36_prot_heme.str
Info: PARAMETERS             ../../Sim_Toppar_Directory/toppar_all36_prot_na_combined.str
Info: PARAMETERS             ../../Sim_Toppar_Directory/toppar_all36_prot_retinol.str
Info: PARAMETERS             ../../Sim_Toppar_Directory/toppar_all36_prot_model.str
Info: PARAMETERS             ../../Sim_Toppar_Directory/toppar_all36_prot_modify_res.str
Info: PARAMETERS             ../../Sim_Toppar_Directory/toppar_all36_na_nad_ppi.str
Info: PARAMETERS             ../../Sim_Toppar_Directory/toppar_all36_na_rna_modified.str
Info: PARAMETERS             ../../Sim_Toppar_Directory/toppar_all36_lipid_sphingo.str
Info: PARAMETERS             ../../Sim_Toppar_Directory/toppar_all36_lipid_archaeal.str
Info: PARAMETERS             ../../Sim_Toppar_Directory/toppar_all36_lipid_bacterial.str
Info: PARAMETERS             ../../Sim_Toppar_Directory/toppar_all36_lipid_cardiolipin.str
Info: PARAMETERS             ../../Sim_Toppar_Directory/toppar_all36_lipid_cholesterol.str
Info: PARAMETERS             ../../Sim_Toppar_Directory/toppar_all36_lipid_dag.str
Info: PARAMETERS             ../../Sim_Toppar_Directory/toppar_all36_lipid_inositol.str
Info: PARAMETERS             ../../Sim_Toppar_Directory/toppar_all36_lipid_lnp.str
Info: PARAMETERS             ../../Sim_Toppar_Directory/toppar_all36_lipid_lps.str
Info: PARAMETERS             ../../Sim_Toppar_Directory/toppar_all36_lipid_mycobacterial.str
Info: PARAMETERS             ../../Sim_Toppar_Directory/toppar_all36_lipid_miscellaneous.str
Info: PARAMETERS             ../../Sim_Toppar_Directory/toppar_all36_lipid_model.str
Info: PARAMETERS             ../../Sim_Toppar_Directory/toppar_all36_lipid_prot.str
Info: PARAMETERS             ../../Sim_Toppar_Directory/toppar_all36_lipid_tag.str
Info: PARAMETERS             ../../Sim_Toppar_Directory/toppar_all36_lipid_yeast.str
Info: PARAMETERS             ../../Sim_Toppar_Directory/toppar_all36_lipid_hmmm.str
Info: PARAMETERS             ../../Sim_Toppar_Directory/toppar_all36_lipid_detergent.str
Info: PARAMETERS             ../../Sim_Toppar_Directory/toppar_all36_lipid_ether.str
Info: PARAMETERS             ../../Sim_Toppar_Directory/toppar_all36_carb_glycolipid.str
Info: PARAMETERS             ../../Sim_Toppar_Directory/toppar_all36_carb_glycopeptide.str
Info: PARAMETERS             ../../Sim_Toppar_Directory/toppar_all36_carb_imlab.str
Info: PARAMETERS             ../../Sim_Toppar_Directory/toppar_all36_label_spin.str
Info: PARAMETERS             ../../Sim_Toppar_Directory/toppar_all36_label_fluorophore.str
Info: USING ARITHMETIC MEAN TO COMBINE L-J SIGMA PARAMETERS
Info: SUMMARY OF PARAMETERS:
Info: 1978 BONDS
Info: 6693 ANGLES
Info: 19794 DIHEDRAL
Info: 428 IMPROPER
Info: 28 CROSSTERM
Info: 751 VDW
Info: 122 VDW_PAIRS
Info: 0 NBTHOLE_PAIRS
Info: STRUCTURE SUMMARY:
Info: 22649 ATOMS
Info: 22997 BONDS
Info: 41378 ANGLES
Info: 61049 DIHEDRALS
Info: 3963 IMPROPERS
Info: 1455 CROSSTERMS
Info: 0 EXCLUSIONS
Info: 11057 RIGID BONDS
Info: 56890 DEGREES OF FREEDOM
Info: 11592 HYDROGEN GROUPS
Info: 4 ATOMS IN LARGEST HYDROGEN GROUP
Info: 11592 MIGRATION GROUPS
Info: 4 ATOMS IN LARGEST MIGRATION GROUP
Info: TOTAL MASS = 164493 amu
Info: TOTAL CHARGE = -32 e
Info: ADDED 124009 IMPLICIT EXCLUSIONS
Info: NONBONDED TABLE R-SQUARED SPACING: 0.0625
Info: NONBONDED TABLE SIZE: 769 POINTS
Info: ORIGINAL ATOMS MINMAX IS -36.514 22.408 -0.085  51.338 116.34 114.813
Info: ADJUSTED ATOMS MINMAX IS -28.9036 32.2014 27.9936  38.7226 103.408 99.8674
Info: REMOVING COM VELOCITY -0.0156655 -0.0528963 -0.00900254
Info: Updated CUDA force table with 4096 elements.
Info: Updated CUDA LJ table with 751 x 751 elements.
Info: Updated CUDA force table with 4096 elements.
Info: Updated CUDA LJ table with 751 x 751 elements.
Info: Updated CUDA force table with 4096 elements.
Info: Updated CUDA LJ table with 751 x 751 elements.
Info: Updated CUDA force table with 4096 elements.
Info: Updated CUDA LJ table with 751 x 751 elements.
Info: Found 356 unique exclusion lists needing 1204 bytes
Info: Found 356 unique exclusion lists needing 1204 bytes
Info: Found 356 unique exclusion lists needing 1204 bytes
Info: Found 356 unique exclusion lists needing 1204 bytes
TCL: Minimizing for 10000 steps
ETITLE: TS BOND ANGLE DIHED IMPRP ELECT VDW BOUNDARY MISC KINETIC TOTAL TEMP POTENTIAL TOTAL3 TEMPAVG
ENERGY: 0 1511.1680 4151.3482 13970.4347 147.9716 -14037.9189 887859.5315 0.0000 0.0000 0.0000 893602.5351 0.0000 893602.5351 893602.5351 0.0000
ENERGY: 2000 1348.9377 4502.3184 13264.8595 224.8500 -28260.7595 -5677.5705 0.0000 0.0000 0.0000 -14597.3644 0.0000 -14597.3644 -14597.3644 0.0000
ENERGY: 4000 1353.0999 4567.8917 13291.3850 236.3843 -29344.4835 -5654.6728 0.0000 0.0000 0.0000 -15550.3954 0.0000 -15550.3954 -15550.3954 0.0000
ENERGY: 6000 1352.0781 4604.3442 13309.6516 244.8515 -29911.3570 -5617.2832 0.0000 0.0000 0.0000 -16017.7148 0.0000 -16017.7148 -16017.7148 0.0000
ENERGY: 8000 1351.1589 4632.5069 13301.6388 242.9475 -30128.9829 -5586.3603 0.0000 0.0000 0.0000 -16187.0911 0.0000 -16187.0911 -16187.0911 0.0000
ENERGY: 10000 1346.0497 4627.5058 13309.1942 244.4911 -30228.0652 -5589.3601 0.0000 0.0000 0.0000 -16290.1846 0.0000 -16290.1846 -16290.1846 0.0000
TCL: Running for 0 steps
ETITLE: TS BOND ANGLE DIHED IMPRP ELECT VDW BOUNDARY MISC KINETIC TOTAL TEMP POTENTIAL TOTAL3 TEMPAVG
ENERGY: 10000 1346.0497 4627.5058 13309.1942 244.4911 -30228.0652 -5589.3601 0.0000 0.0000 17179.8272 889.6426 303.9298 -16290.1846 883.1440 303.9298
