Info: SIMULATION PARAMETERS:
Info: TIMESTEP               2
Info: NUMBER OF STEPS        0
Info: STEPS PER CYCLE        20
Info: FIRST LDB TIMESTEP     100
Info: LAST LDB TIMESTEP     -1
Info: HOM BACKGROUND SCALING 1
Info: MIN ATOMS PER PATCH    40
Info: EMPTY PATCH LOAD       40 ATOMS
Info: INITIAL TEMPERATURE    303.15
Info: CENTER OF MASS MOVING INITIALLY? NO
Info: DIELECTRIC             1
Info: EXCLUDE                SCALED ONE-FOUR
Info: 1-4 ELECTROSTATICS SCALED BY 1
Info: MODIFIED 1-4 VDW PARAMETERS WILL BE USED
Info: DCD FILENAME           min.dcd
Info: DCD FREQUENCY          5000
Info: DCD FIRST STEP         5000
Info: DCD FILE WILL CONTAIN UNIT CELL DATA
Info: XST FILENAME           min.xst
Info: XST FREQUENCY          5000
Info: NO VELOCITY DCD OUTPUT
Info: NO FORCE DCD OUTPUT
Info: OUTPUT FILENAME        min
Info: BINARY OUTPUT FILES WILL BE USED
Info: RESTART FILENAME       min.restart
Info: RESTART FREQUENCY      500
Info: BINARY RESTART FILES WILL BE USED
Info: SWITCHING ACTIVE
Info: VDW FORCE SWITCHING ACTIVE
Info: SWITCHING ON           10
Info: SWITCHING OFF          12
Info: PAIRLIST DISTANCE      16
Info: PAIRLIST SHRINK RATE   0.01
Info: PAIRLIST GROW RATE     0.01
Info: PAIRLIST TRIGGER       0.3
Info: PAIRLISTS PER CYCLE    2
Info: PAIRLISTS ENABLED
Info: MARGIN                 0
Info: HYDROGEN GROUP CUTOFF  2.5
Info: PATCH DIMENSION        18.5
Info: OUTPUT ENERGY PRECISION 4
Info: OUPUT ENERGY PRECISION 4
Info: CROSSTERM ENERGY INCLUDED IN DIHEDRAL
Info: TIMING OUTPUT STEPS    1000
Info: LANGEVIN DYNAMICS ACTIVE
Info: LANGEVIN TEMPERATURE   303.15
Info: LANGEVIN USING BBK INTEGRATOR
Info: LANGEVIN DAMPING COEFFICIENT IS 1 INVERSE PS
Info: LANGEVIN DYNAMICS NOT APPLIED TO HYDROGENS
Info: VELOCITY REASSIGNMENT FREQ  500
Info: VELOCITY REASSIGNMENT TEMP  303.15
Info: USING VERLET I (r-RESPA) MTS SCHEME.
Info: C1 SPLITTING OF LONG RANGE ELECTROSTATICS
Info: PLACING ATOMS IN PATCHES BY HYDROGEN GROUPS
Info: RIGID BONDS TO HYDROGEN : ALL
Info:         ERROR TOLERANCE : 1e-08
Info:          MAX ITERATIONS : 100
Info: RIGID WATER USING SETTLE ALGORITHM
Info: RANDOM NUMBER SEED     1699479828
Info: USE HYDROGEN BONDS?    NO
Info: COORDINATE PDB         complex.pdb
Info: STRUCTURE FILE         complex.psf
Info: PARAMETER file: CHARMM format!
Info: PARAMETERS             ../../Sim_Toppar_Directory/par_all36m_prot.prm
Info: PARAMETERS             ../../Sim_Toppar_Directory/par_all36_na.prm
Info: PARAMETERS             ../../Sim_Toppar_Directory/par_all36_carb.prm
Info: PARAMETERS             ../../Sim_Toppar_Directory/par_all36_lipid.prm
Info: PARAMETERS             ../../Sim_Toppar_Directory/par_all36_cgenff.prm
Info: PARAMETERS             ../../Sim_Toppar_Directory/par_interface.prm
Info: PARAMETERS             ../../Sim_Toppar_Directory/toppar_all36_moreions.str
Info: PARAMETERS             ../../Sim_Toppar_Directory/toppar_all36_nano_lig.str
Info: PARAMETERS             ../../Sim_Toppar_Directory/toppar_all36_nano_lig_patch.str
Info: PARAMETERS             ../../Sim_Toppar_Directory/toppar_all36_synthetic_polymer.str
Info: PARAMETERS             ../../Sim_Toppar_Directory/toppar_all36_synthetic_polymer_patch.str
Info: PARAMETERS             ../../Sim_Toppar_Directory/toppar_all36_polymer_solvent.str
Info: PARAMETERS             ../../Sim_Toppar_Directory/toppar_water_ions.str
Info: PARAMETERS             ../../Sim_Toppar_Directory/toppar_dum_noble_gases.str
Info: PARAMETERS             ../../Sim_Toppar_Directory/toppar_ions_won.str
Info: PARAMETERS             ../../Sim_Toppar_Directory/cam.str
Info: PARAMETERS             ../../Sim_Toppar_Directory/toppar_all36_prot_arg0.str
Info: PARAMETERS             ../../Sim_Toppar_Directory/toppar_all36_prot_c36m_d_aminoacids.str
Info: PARAMETERS             ../../Sim_Toppar_Directory/toppar_all36_prot_fluoro_alkanes.str
Info: PARAMETERS             ../../Sim_Toppar_Directory/toppar_all36_prot_heme.str
Info: PARAMETERS             ../../Sim_Toppar_Directory/toppar_all36_prot_na_combined.str
Info: PARAMETERS             ../../Sim_Toppar_Directory/toppar_all36_prot_retinol.str
Info: PARAMETERS             ../../Sim_Toppar_Directory/toppar_all36_prot_model.str
Info: PARAMETERS             ../../Sim_Toppar_Directory/toppar_all36_prot_modify_res.str
Info: PARAMETERS             ../../Sim_Toppar_Directory/toppar_all36_na_nad_ppi.str
Info: PARAMETERS             ../../Sim_Toppar_Directory/toppar_all36_na_rna_modified.str
Info: PARAMETERS             ../../Sim_Toppar_Directory/toppar_all36_lipid_sphingo.str
Info: PARAMETERS             ../../Sim_Toppar_Directory/toppar_all36_lipid_archaeal.str
Info: PARAMETERS             ../../Sim_Toppar_Directory/toppar_all36_lipid_bacterial.str
Info: PARAMETERS             ../../Sim_Toppar_Directory/toppar_all36_lipid_cardiolipin.str
Info: PARAMETERS             ../../Sim_Toppar_Directory/toppar_all36_lipid_cholesterol.str
Info: PARAMETERS             ../../Sim_Toppar_Directory/toppar_all36_lipid_dag.str
Info: PARAMETERS             ../../Sim_Toppar_Directory/toppar_all36_lipid_inositol.str
Info: PARAMETERS             ../../Sim_Toppar_Directory/toppar_all36_lipid_lnp.str
Info: PARAMETERS             ../../Sim_Toppar_Directory/toppar_all36_lipid_lps.str
Info: PARAMETERS             ../../Sim_Toppar_Directory/toppar_all36_lipid_mycobacterial.str
Info: PARAMETERS             ../../Sim_Toppar_Directory/toppar_all36_lipid_miscellaneous.str
Info: PARAMETERS             ../../Sim_Toppar_Directory/toppar_all36_lipid_model.str
Info: PARAMETERS             ../../Sim_Toppar_Directory/toppar_all36_lipid_prot.str
Info: PARAMETERS             ../../Sim_Toppar_Directory/toppar_all36_lipid_tag.str
Info: PARAMETERS             ../../Sim_Toppar_Directory/toppar_all36_lipid_yeast.str
Info: PARAMETERS             ../../Sim_Toppar_Directory/toppar_all36_lipid_hmmm.str
Info: PARAMETERS             ../../Sim_Toppar_Directory/toppar_all36_lipid_detergent.str
Info: PARAMETERS             ../../Sim_Toppar_Directory/toppar_all36_lipid_ether.str
Info: PARAMETERS             ../../Sim_Toppar_Directory/toppar_all36_carb_glycolipid.str
Info: PARAMETERS             ../../Sim_Toppar_Directory/toppar_all36_carb_glycopeptide.str
Info: PARAMETERS             ../../Sim_Toppar_Directory/toppar_all36_carb_imlab.str
Info: PARAMETERS             ../../Sim_Toppar_Directory/toppar_all36_label_spin.str
Info: PARAMETERS             ../../Sim_Toppar_Directory/toppar_all36_label_fluorophore.str
Info: USING ARITHMETIC MEAN TO COMBINE L-J SIGMA PARAMETERS
Info: SUMMARY OF PARAMETERS:
Info: 1978 BONDS
Info: 6693 ANGLES
Info: 19794 DIHEDRAL
Info: 428 IMPROPER
Info: 28 CROSSTERM
Info: 751 VDW
Info: 122 VDW_PAIRS
Info: 0 NBTHOLE_PAIRS
Info: STRUCTURE SUMMARY:
Info: 22649 ATOMS
Info: 22997 BONDS
Info: 41378 ANGLES
Info: 61049 DIHEDRALS
Info: 3963 IMPROPERS
Info: 1455 CROSSTERMS
Info: 0 EXCLUSIONS
Info: 11057 RIGID BONDS
Info: 56890 DEGREES OF FREEDOM
Info: 11592 HYDROGEN GROUPS
Info: 4 ATOMS IN LARGEST HYDROGEN GROUP
Info: 11592 MIGRATION GROUPS
Info: 4 ATOMS IN LARGEST MIGRATION GROUP
Info: TOTAL MASS = 164493 amu
Info: TOTAL CHARGE = -32 e
Info: ADDED 124009 IMPLICIT EXCLUSIONS
Info: NONBONDED TABLE R-SQUARED SPACING: 0.0625
Info: NONBONDED TABLE SIZE: 769 POINTS
Info: ORIGINAL ATOMS MINMAX IS -63.576 22.408 -0.085  51.338 116.34 100.145
Info: ADJUSTED ATOMS MINMAX IS -51.2986 36.2216 29.2346  38.3876 105.505 88.6984
Info: REMOVING COM VELOCITY 0.021892 -0.0280414 -0.0355015
Info: Updated CUDA force table with 4096 elements.
Info: Updated CUDA LJ table with 751 x 751 elements.
Info: Updated CUDA force table with 4096 elements.
Info: Updated CUDA LJ table with 751 x 751 elements.
Info: Updated CUDA force table with 4096 elements.
Info: Updated CUDA LJ table with 751 x 751 elements.
Info: Updated CUDA force table with 4096 elements.
Info: Updated CUDA LJ table with 751 x 751 elements.
Info: Found 356 unique exclusion lists needing 1204 bytes
Info: Found 356 unique exclusion lists needing 1204 bytes
Info: Found 356 unique exclusion lists needing 1204 bytes
Info: Found 356 unique exclusion lists needing 1204 bytes
TCL: Minimizing for 10000 steps
ETITLE: TS BOND ANGLE DIHED IMPRP ELECT VDW BOUNDARY MISC KINETIC TOTAL TEMP POTENTIAL TOTAL3 TEMPAVG
ENERGY: 0 1510.6928 4151.3271 13970.4093 147.9743 -14135.9152 1362638.5841 0.0000 0.0000 0.0000 1368283.0724 0.0000 1368283.0724 1368283.0724 0.0000
ENERGY: 2000 1344.7534 4457.9748 13276.5519 228.5963 -28148.1984 -5669.0535 0.0000 0.0000 0.0000 -14509.3755 0.0000 -14509.3755 -14509.3755 0.0000
ENERGY: 4000 1347.0930 4537.5526 13295.4581 230.2278 -29149.6829 -5656.8337 0.0000 0.0000 0.0000 -15396.1851 0.0000 -15396.1851 -15396.1851 0.0000
ENERGY: 6000 1351.1416 4582.3263 13315.8462 233.8998 -29833.8180 -5628.2571 0.0000 0.0000 0.0000 -15978.8613 0.0000 -15978.8613 -15978.8613 0.0000
ENERGY: 8000 1350.3531 4610.6915 13290.7587 236.4381 -30095.6404 -5638.0406 0.0000 0.0000 0.0000 -16245.4396 0.0000 -16245.4396 -16245.4396 0.0000
ENERGY: 10000 1346.0672 4619.6676 13299.1763 238.0900 -30183.6758 -5639.4818 0.0000 0.0000 0.0000 -16320.1565 0.0000 -16320.1565 -16320.1565 0.0000
TCL: Running for 0 steps
ETITLE: TS BOND ANGLE DIHED IMPRP ELECT VDW BOUNDARY MISC KINETIC TOTAL TEMP POTENTIAL TOTAL3 TEMPAVG
ENERGY: 10000 1346.0672 4619.6676 13299.1763 238.0900 -30183.6758 -5639.4818 0.0000 0.0000 17096.4305 776.2740 302.4544 -16320.1565 770.0034 302.4544
