Info: SIMULATION PARAMETERS:
Info: TIMESTEP               2
Info: NUMBER OF STEPS        0
Info: STEPS PER CYCLE        20
Info: FIRST LDB TIMESTEP     100
Info: LAST LDB TIMESTEP     -1
Info: HOM BACKGROUND SCALING 1
Info: MIN ATOMS PER PATCH    40
Info: EMPTY PATCH LOAD       40 ATOMS
Info: INITIAL TEMPERATURE    303.15
Info: CENTER OF MASS MOVING INITIALLY? NO
Info: DIELECTRIC             1
Info: EXCLUDE                SCALED ONE-FOUR
Info: 1-4 ELECTROSTATICS SCALED BY 1
Info: MODIFIED 1-4 VDW PARAMETERS WILL BE USED
Info: DCD FILENAME           min.dcd
Info: DCD FREQUENCY          5000
Info: DCD FIRST STEP         5000
Info: DCD FILE WILL CONTAIN UNIT CELL DATA
Info: XST FILENAME           min.xst
Info: XST FREQUENCY          5000
Info: NO VELOCITY DCD OUTPUT
Info: NO FORCE DCD OUTPUT
Info: OUTPUT FILENAME        min
Info: BINARY OUTPUT FILES WILL BE USED
Info: RESTART FILENAME       min.restart
Info: RESTART FREQUENCY      500
Info: BINARY RESTART FILES WILL BE USED
Info: SWITCHING ACTIVE
Info: VDW FORCE SWITCHING ACTIVE
Info: SWITCHING ON           10
Info: SWITCHING OFF          12
Info: PAIRLIST DISTANCE      16
Info: PAIRLIST SHRINK RATE   0.01
Info: PAIRLIST GROW RATE     0.01
Info: PAIRLIST TRIGGER       0.3
Info: PAIRLISTS PER CYCLE    2
Info: PAIRLISTS ENABLED
Info: MARGIN                 0
Info: HYDROGEN GROUP CUTOFF  2.5
Info: PATCH DIMENSION        18.5
Info: OUTPUT ENERGY PRECISION 4
Info: OUPUT ENERGY PRECISION 4
Info: CROSSTERM ENERGY INCLUDED IN DIHEDRAL
Info: TIMING OUTPUT STEPS    1000
Info: LANGEVIN DYNAMICS ACTIVE
Info: LANGEVIN TEMPERATURE   303.15
Info: LANGEVIN USING BBK INTEGRATOR
Info: LANGEVIN DAMPING COEFFICIENT IS 1 INVERSE PS
Info: LANGEVIN DYNAMICS NOT APPLIED TO HYDROGENS
Info: VELOCITY REASSIGNMENT FREQ  500
Info: VELOCITY REASSIGNMENT TEMP  303.15
Info: USING VERLET I (r-RESPA) MTS SCHEME.
Info: C1 SPLITTING OF LONG RANGE ELECTROSTATICS
Info: PLACING ATOMS IN PATCHES BY HYDROGEN GROUPS
Info: RIGID BONDS TO HYDROGEN : ALL
Info:         ERROR TOLERANCE : 1e-08
Info:          MAX ITERATIONS : 100
Info: RIGID WATER USING SETTLE ALGORITHM
Info: RANDOM NUMBER SEED     1699475327
Info: USE HYDROGEN BONDS?    NO
Info: COORDINATE PDB         complex.pdb
Info: STRUCTURE FILE         complex.psf
Info: PARAMETER file: CHARMM format!
Info: PARAMETERS             ../../Sim_Toppar_Directory/par_all36m_prot.prm
Info: PARAMETERS             ../../Sim_Toppar_Directory/par_all36_na.prm
Info: PARAMETERS             ../../Sim_Toppar_Directory/par_all36_carb.prm
Info: PARAMETERS             ../../Sim_Toppar_Directory/par_all36_lipid.prm
Info: PARAMETERS             ../../Sim_Toppar_Directory/par_all36_cgenff.prm
Info: PARAMETERS             ../../Sim_Toppar_Directory/par_interface.prm
Info: PARAMETERS             ../../Sim_Toppar_Directory/toppar_all36_moreions.str
Info: PARAMETERS             ../../Sim_Toppar_Directory/toppar_all36_nano_lig.str
Info: PARAMETERS             ../../Sim_Toppar_Directory/toppar_all36_nano_lig_patch.str
Info: PARAMETERS             ../../Sim_Toppar_Directory/toppar_all36_synthetic_polymer.str
Info: PARAMETERS             ../../Sim_Toppar_Directory/toppar_all36_synthetic_polymer_patch.str
Info: PARAMETERS             ../../Sim_Toppar_Directory/toppar_all36_polymer_solvent.str
Info: PARAMETERS             ../../Sim_Toppar_Directory/toppar_water_ions.str
Info: PARAMETERS             ../../Sim_Toppar_Directory/toppar_dum_noble_gases.str
Info: PARAMETERS             ../../Sim_Toppar_Directory/toppar_ions_won.str
Info: PARAMETERS             ../../Sim_Toppar_Directory/cam.str
Info: PARAMETERS             ../../Sim_Toppar_Directory/toppar_all36_prot_arg0.str
Info: PARAMETERS             ../../Sim_Toppar_Directory/toppar_all36_prot_c36m_d_aminoacids.str
Info: PARAMETERS             ../../Sim_Toppar_Directory/toppar_all36_prot_fluoro_alkanes.str
Info: PARAMETERS             ../../Sim_Toppar_Directory/toppar_all36_prot_heme.str
Info: PARAMETERS             ../../Sim_Toppar_Directory/toppar_all36_prot_na_combined.str
Info: PARAMETERS             ../../Sim_Toppar_Directory/toppar_all36_prot_retinol.str
Info: PARAMETERS             ../../Sim_Toppar_Directory/toppar_all36_prot_model.str
Info: PARAMETERS             ../../Sim_Toppar_Directory/toppar_all36_prot_modify_res.str
Info: PARAMETERS             ../../Sim_Toppar_Directory/toppar_all36_na_nad_ppi.str
Info: PARAMETERS             ../../Sim_Toppar_Directory/toppar_all36_na_rna_modified.str
Info: PARAMETERS             ../../Sim_Toppar_Directory/toppar_all36_lipid_sphingo.str
Info: PARAMETERS             ../../Sim_Toppar_Directory/toppar_all36_lipid_archaeal.str
Info: PARAMETERS             ../../Sim_Toppar_Directory/toppar_all36_lipid_bacterial.str
Info: PARAMETERS             ../../Sim_Toppar_Directory/toppar_all36_lipid_cardiolipin.str
Info: PARAMETERS             ../../Sim_Toppar_Directory/toppar_all36_lipid_cholesterol.str
Info: PARAMETERS             ../../Sim_Toppar_Directory/toppar_all36_lipid_dag.str
Info: PARAMETERS             ../../Sim_Toppar_Directory/toppar_all36_lipid_inositol.str
Info: PARAMETERS             ../../Sim_Toppar_Directory/toppar_all36_lipid_lnp.str
Info: PARAMETERS             ../../Sim_Toppar_Directory/toppar_all36_lipid_lps.str
Info: PARAMETERS             ../../Sim_Toppar_Directory/toppar_all36_lipid_mycobacterial.str
Info: PARAMETERS             ../../Sim_Toppar_Directory/toppar_all36_lipid_miscellaneous.str
Info: PARAMETERS             ../../Sim_Toppar_Directory/toppar_all36_lipid_model.str
Info: PARAMETERS             ../../Sim_Toppar_Directory/toppar_all36_lipid_prot.str
Info: PARAMETERS             ../../Sim_Toppar_Directory/toppar_all36_lipid_tag.str
Info: PARAMETERS             ../../Sim_Toppar_Directory/toppar_all36_lipid_yeast.str
Info: PARAMETERS             ../../Sim_Toppar_Directory/toppar_all36_lipid_hmmm.str
Info: PARAMETERS             ../../Sim_Toppar_Directory/toppar_all36_lipid_detergent.str
Info: PARAMETERS             ../../Sim_Toppar_Directory/toppar_all36_lipid_ether.str
Info: PARAMETERS             ../../Sim_Toppar_Directory/toppar_all36_carb_glycolipid.str
Info: PARAMETERS             ../../Sim_Toppar_Directory/toppar_all36_carb_glycopeptide.str
Info: PARAMETERS             ../../Sim_Toppar_Directory/toppar_all36_carb_imlab.str
Info: PARAMETERS             ../../Sim_Toppar_Directory/toppar_all36_label_spin.str
Info: PARAMETERS             ../../Sim_Toppar_Directory/toppar_all36_label_fluorophore.str
Info: USING ARITHMETIC MEAN TO COMBINE L-J SIGMA PARAMETERS
Info: SUMMARY OF PARAMETERS:
Info: 1978 BONDS
Info: 6693 ANGLES
Info: 19794 DIHEDRAL
Info: 428 IMPROPER
Info: 28 CROSSTERM
Info: 751 VDW
Info: 122 VDW_PAIRS
Info: 0 NBTHOLE_PAIRS
Info: STRUCTURE SUMMARY:
Info: 22678 ATOMS
Info: 23023 BONDS
Info: 41463 ANGLES
Info: 61161 DIHEDRALS
Info: 3919 IMPROPERS
Info: 1459 CROSSTERMS
Info: 0 EXCLUSIONS
Info: 11102 RIGID BONDS
Info: 56932 DEGREES OF FREEDOM
Info: 11576 HYDROGEN GROUPS
Info: 4 ATOMS IN LARGEST HYDROGEN GROUP
Info: 11576 MIGRATION GROUPS
Info: 4 ATOMS IN LARGEST MIGRATION GROUP
Info: TOTAL MASS = 164276 amu
Info: TOTAL CHARGE = -26 e
Info: ADDED 124243 IMPLICIT EXCLUSIONS
Info: NONBONDED TABLE R-SQUARED SPACING: 0.0625
Info: NONBONDED TABLE SIZE: 769 POINTS
Info: ORIGINAL ATOMS MINMAX IS -61.592 22.408 -0.085  51.338 116.34 100.145
Info: ADJUSTED ATOMS MINMAX IS -38.3844 36.4643 14.0297  36.9394 103.582 89.8522
Info: REMOVING COM VELOCITY 0.0574065 0.0182116 0.000778776
Info: Updated CUDA force table with 4096 elements.
Info: Updated CUDA LJ table with 751 x 751 elements.
Info: Updated CUDA force table with 4096 elements.
Info: Updated CUDA LJ table with 751 x 751 elements.
Info: Updated CUDA force table with 4096 elements.
Info: Updated CUDA LJ table with 751 x 751 elements.
Info: Updated CUDA force table with 4096 elements.
Info: Updated CUDA LJ table with 751 x 751 elements.
Info: Found 354 unique exclusion lists needing 1200 bytes
Info: Found 354 unique exclusion lists needing 1200 bytes
Info: Found 354 unique exclusion lists needing 1200 bytes
Info: Found 354 unique exclusion lists needing 1200 bytes
TCL: Minimizing for 10000 steps
ETITLE: TS BOND ANGLE DIHED IMPRP ELECT VDW BOUNDARY MISC KINETIC TOTAL TEMP POTENTIAL TOTAL3 TEMPAVG
ENERGY: 0 1512.1621 4180.0591 13910.9561 149.6334 -13045.6987 699805.1995 0.0000 0.0000 0.0000 706512.3115 0.0000 706512.3115 706512.3115 0.0000
ENERGY: 2000 1332.1359 4462.6870 13172.8596 222.3473 -26712.9114 -5670.0916 0.0000 0.0000 0.0000 -13192.9732 0.0000 -13192.9732 -13192.9732 0.0000
ENERGY: 4000 1343.4911 4569.1544 13225.7367 228.0003 -28005.7153 -5647.3775 0.0000 0.0000 0.0000 -14286.7102 0.0000 -14286.7102 -14286.7102 0.0000
ENERGY: 6000 1340.7800 4623.3282 13208.5352 230.8695 -28525.3096 -5641.1059 0.0000 0.0000 0.0000 -14762.9027 0.0000 -14762.9027 -14762.9027 0.0000
ENERGY: 8000 1342.9574 4640.0814 13210.3614 233.2092 -28739.3160 -5621.2308 0.0000 0.0000 0.0000 -14933.9374 0.0000 -14933.9374 -14933.9374 0.0000
ENERGY: 10000 1342.2943 4645.7077 13206.7199 234.7685 -28829.4438 -5616.5799 0.0000 0.0000 0.0000 -15016.5333 0.0000 -15016.5333 -15016.5333 0.0000
TCL: Running for 0 steps
ETITLE: TS BOND ANGLE DIHED IMPRP ELECT VDW BOUNDARY MISC KINETIC TOTAL TEMP POTENTIAL TOTAL3 TEMPAVG
ENERGY: 10000 1342.2943 4645.7077 13206.7199 234.7685 -28829.4438 -5616.5799 0.0000 0.0000 16993.3343 1976.8010 300.4087 -15016.5333 1970.6910 300.4087
